B3 PSLF CGMES Solved.EPC
# history file date Thu Jul 30 10:44:01 2026
# present file date Thu Jul 30 10:45:01 2026
# Version 24.3.0
# Exported to Version 24
title
!
comments
!
solution parameters
tap    0    tcul  enabled/disabled
phas   0    ps    enabled/disabled
area   0    area  enabled/disabled
svd    0    svd   enabled/disabled
dctap  0    dc    enabled/disabled
gcd    0    gcd   enabled/disabled
sssc   0    sssc  enabled/disabled
jump  0.000110    jumper threshold
toler   0.1000    newton tolerance
sbase 100.0000    system mva base
!
bus data  [    3]               ty  vsched   volt     angle    ar zone  vmax   vmin   date_in date_out pid L own st  latitude  longitude island    sdmon   vmax1      vmin1      dvmax subst
      1 "345 kV Volta" 345.0000 "                                "     0  :  0 1.00000000 1.00000000 0.00000000    1    1 0.0000 0.0000        0        0   0 0   0 0   0.000000   0.000000     0 0    0.00000    0.00000    0.00000 -1 " "     0 -1 " "  0  " " 
      2 "345 kV Volta" 345.0000 "                                "     0  :  2 1.00000000 1.00000000 -5.09591791    1    1 0.0000 0.0000        0        0   0 0   0 0   0.000000   0.000000     0 0    0.00000    0.00000    0.00000 -1 " "     0 -1 " "  0  " " 
      3 "345 kV Volta" 345.0000 "                                "     0  :  2 1.00000000 1.00000000 -4.13461745    1    1 0.0000 0.0000        0        0   0 0   0 0   0.000000   0.000000     0 0    0.00000    0.00000    0.00000 -1 " "     0 -1 " "  0  " " 
branch data  [    3]                                          ck  se  ------------long_id_------------    st resist   react   charge   rate1  rate2  rate3  rate4 aloss  lngth 
      1 "345 kV Volta" 345.00       2 "345 kV Volta" 345.00  "1 "   1 "Bus 1 - Bus 2 Line 1"     :  1  0.010000  0.050000  0.000000    0.00    0.00    0.00    0.00 0.000    1.000 /
   1    1  0.000000  0.000000  0.000000        0        0   0 0  0    0.00    0.00    0.00    0.00   0 0.000   0 0.000   0 0.000   0 0.000   0 0.000   0 0.000   0 0.000   0 0.000  0 0  0  0  0  0.000   0.000000  0.000000  " "     0.00    0.00    0.00    0.00 
      1 "345 kV Volta" 345.00       3 "345 kV Volta" 345.00  "1 "   1 "Bus 1 - Bus 3 Line 1"     :  1  0.015000  0.050000  0.000000    0.00    0.00    0.00    0.00 0.000    1.000 /
   1    1  0.000000  0.000000  0.000000        0        0   0 0  0    0.00    0.00    0.00    0.00   0 0.000   0 0.000   0 0.000   0 0.000   0 0.000   0 0.000   0 0.000   0 0.000  0 0  0  0  0  0.000   0.000000  0.000000  " "     0.00    0.00    0.00    0.00 
      2 "345 kV Volta" 345.00       3 "345 kV Volta" 345.00  "1 "   1 "Bus 2 - Bus 3 Line 1"     :  1  0.015000  0.050000  0.000000    0.00    0.00    0.00    0.00 0.000    1.000 /
   1    1  0.000000  0.000000  0.000000        0        0   0 0  0    0.00    0.00    0.00    0.00   0 0.000   0 0.000   0 0.000   0 0.000   0 0.000   0 0.000   0 0.000   0 0.000  0 0  0  0  0  0.000   0.000000  0.000000  " "     0.00    0.00    0.00    0.00 
generator data  [   3]         id   ------------long_id_------------    st ---no--     reg_name           prf  qrf  ar zone   pgen   pmax   pmin   qgen   qmax   qmin   mbase  cmp_r cmp_x gen_r gen_x           hbus                         tbus                date_in date_out pid N
      1 "345 kV Volta" 345.00 "1 "  "Bus 1 Generator 1"    :  1       1 "345 kV Volta" 345.00  1.000000  1.000000   1    1 406.060638 800.000000   0.000000 -61.474358 99999.000000 -99999.000000 800.0000 0.000 0.000 0.000000 0.000000       1 "345 kV Volta" 345.00       1 "345 kV Volta" 345.00         0        0   0 1 /
 0.0000 0.0000 1.0000   0 0.000   0 0.000   0 0.000   0 0.000   0 0.000   0 0.000   0 0.000   0 0.000    0   0   0   0   0   0   0    0.0 0 0  0.000000    1  " "  0  0   0   0   0   0   0.000000 /
  0   0  0.000000   0  0.000000   0.000000  " "     0     0   0.000000   0.000000 
      2 "345 kV Volta" 345.00 "1 "  "Bus 2 Generator 1"    :  1       2 "345 kV Volta" 345.00  1.000000  1.000000   1    1  -0.000000 600.000000 150.000000 151.257294 99999.000000 -9900.000000 600.0000 0.000 0.000 0.000000 0.000000       1 "345 kV Volta" 345.00       1 "345 kV Volta" 345.00         0        0   0 1 /
 0.0000 0.0000 1.0000   0 0.000   0 0.000   0 0.000   0 0.000   0 0.000   0 0.000   0 0.000   0 0.000    0   0   0   0   0   0   0    0.0 0 0  0.000000    1  " "  0  0   0   0   0   0   0.000000 /
  0   0  0.000000   0  0.000000   0.000000  " "     0     0   0.000000   0.000000 
      3 "345 kV Volta" 345.00 "1 "  "Bus 3 Generator 1"    :  1       3 "345 kV Volta" 345.00  1.000000  1.000000   1    1  -0.000000 700.000000 100.000000 85.486679 9900.000000 -9900.000000 700.0000 0.000 0.000 0.000000 0.000000       1 "345 kV Volta" 345.00       1 "345 kV Volta" 345.00         0        0   0 1 /
 0.0000 0.0000 1.0000   0 0.000   0 0.000   0 0.000   0 0.000   0 0.000   0 0.000   0 0.000   0 0.000    0   0   0   0   0   0   0    0.0 0 0  0.000000    1  " "  0  0   0   0   0   0   0.000000 /
  0   0  0.000000   0  0.000000   0.000000  " "     0     0   0.000000   0.000000 
load data  [   3]             id   ------------long_id_------------     st      mw      mvar    mw_i    mvar_i  mw_z      mvar_z  ar zone  date_in date_out pid N own M nonc  thr_bus flg
      1 "345 kV Volta" 345.00 "1 "   "Bus 1 Load 1"  :  1 100.000000 0.000000 0.000000 0.000000 0.000000 0.000000   1    1        0        0   0 1   0 0    0       1 "345 kV Volta" 345.00   0 "        "     1  0      0 "            "   0.00 "  " 0.000000 0.000000 0 0 0.000000 0.000000 0 0  0.000000  " "  0.000000 0.000000 0.000000 0.000000 0.000000 0.000000 0.000000 0.000000 0.000000 0.000000 0.000000 0
      2 "345 kV Volta" 345.00 "1 "   "Bus 2 Load 1"  :  1 200.000000 100.000000 0.000000 0.000000 0.000000 0.000000   1    1        0        0   0 1   0 0    0       1 "345 kV Volta" 345.00   0 "        "     1  0      0 "            "   0.00 "  " 0.000000 0.000000 0 0 0.000000 0.000000 0 0  0.000000  " "  0.000000 0.000000 0.000000 0.000000 0.000000 0.000000 0.000000 0.000000 0.000000 0.000000 0.000000 0
      3 "345 kV Volta" 345.00 "1 "   "Bus 3 Load 1"  :  1 100.000000 50.000000 0.000000 0.000000 0.000000 0.000000   1    1        0        0   0 1   0 0    0       1 "345 kV Volta" 345.00   0 "        "     1  0      0 "            "   0.00 "  " 0.000000 0.000000 0 0 0.000000 0.000000 0 0  0.000000  " "  0.000000 0.000000 0.000000 0.000000 0.000000 0.000000 0.000000 0.000000 0.000000 0.000000 0.000000 0
area data  [  1]                            swing  desired    tol      pnet     qnet
    1 "CGMES Area 1                    "       2    0.000    0.000   -0.000   -0.000 0  0  0  " "   0.000000 
zone data  [   1]                            pnet     qnet
    1 "Zone 1                          "   -0.000   -0.000 0 
end
#
#
#
#This file was written by GE Vernova.
#  PSLF load flow program on Thu Jul 30 10:45:01 2026
#  using the following solution parameters:
#
#  TCUL tap ratio adjustment off
#
#  Automatic SVD control off
#
#  AREA interchange control off
#
#  Automatic phase shifter adjustment off
#
#  DC converter control off
#
#  GCD control off
#  SSSC control off
#
#  Jumper Threshold Impedance   0.0001
#
#  Newton Solution Tolerance    0.1000
#
#
#     template for epc format
#
#datamaintainer data  [    0] 
#
#substation data  [    0]  latitude  longitude  rdc  "datamaintainer"
#
#block data  [    0]  "datamaintainer"
#
#plant data  [    0]  "datamaintainer"
#
#bus data  [    3]            ty  vsched   volt     angle    ar zone  vmax   vmin   date_in date_out pid L own st isol lat long sdmon vmax1 vmin1 dvmax
#
#branch data  [    3]                                ck  se  ------------long_id_------------    st resist   react   charge   rate1  rate2  rate3  rate4 aloss  lngth 
#ar zone trangi tap_f tap_t  date_in date_out pid N ty  rate5  rate6  rate7  rate8 ow1 part1 ow2 part2 ow3 part3 ow4 part4 ow5 part5 ow6 part6 ow7 part7 ow8 part8 ohm sdmon
#
#transformer data  [   0]                              ck   ------------long_id_------------    st ty --no---    reg_name          zt         int                           tert               ar zone  tbase   ps_r    ps_x    pt_r    pt_x    ts_r    ts_x
#vnomp -vnoms -vnomt anglep -gmag-- -bmag--  rate1  rate2  rate3  rate4 -loss  -tmax- -tmin- -vmax- -vmin- -step-- -tap-- -ftapp -ftaps -ftapt  date_in date_out pid N   rate5  rate6  rate7  rate8
#ow1 part1 ow2 part2 ow3 part3 ow4 part4 ow5 part5 ow6 part6 ow7 part7 ow8 part8 ohm
#tbasept tbasets angls anglt rates1 rates2 rates3 ratet1 ratet2 ratet3 alosss alosst rxunits gbunits tunits rcomp xcomp sdmon
#
#generator data  [   3]    id   ------------long_id_------------    st ---no--     reg_name       prf  qrf  ar zone   pgen   pmax   pmin   qgen   qmax   qmin   mbase   cmp_r cmp_x gen_r gen_x           hbus                    tbus           date_in date_out pid N
#-rtran -xtran -gtap- ow1 part1 ow2 part2 ow3 part3 ow4 part4 ow5 part5 ow6 part6 ow7 part7 ow8 part8 gov agc disp basld air turb qtab pmax2 sdmon
#
#ppc data  [    0] no  st   ---no--     reg_name   QAuto  Vdev  Qdb  Qmax  Qmin  Vlow  Vdblow  Vdbhigh  Vhigh  PF ---Plim--    Plim_name  Pmax  Pmin  Slope  Qvreg  Br_Mvar_Q LID  DMaint'r
#
#load data  [   3]          id   ------------long_id_------------     st      mw      mvar    mw_i    mvar_i  mw_z      mvar_z  ar zone  date_in date_out pid N own sdmon nonc ithbus ithflag
#
#shunt data  [   0]         id                               ck  se  long_id_     st ar zone    pu_mw  pu_mvar    date_in date_out pid N own part1 own part2 own part3 own part4 --num--  --name--  --kv--
#
#svd data  [  0]            id   ------------long_id_------------    st ty --no---     reg_name       ar zone      g      b  min_c  max_c  vband   bmin   bmax  date_in date_out pid N own part1 own part2 own part3 own part4
#N1 -step- N2 -step- N3 -step- N4 -step- N5 -step- N6 -step- N7 -step- N8 -step-
#
#area data  [  1]                           swing  desired    tol      pnet     qnet
#
#zone data  [   1]                           pnet     qnet
#
#interface data  [   0]                     pnet     qnet   -rate1- -rate2- -rate3- -rate4- 
#
#interface branch data  [    0]                      ck      -i_no-  part_fac  
#
#dc bus data  [  0]           ty ar  zone   vsched     dc_volt  date_in date_out pid own
#
#dc line data  [  0]                                  ck   ------------long_id_------------     st ar zone   resist   react    capac   rate1  rate2  rate3  rate4  len  aloss    date_in date_out PID N  rate5  rate6  rate7  rate8
#len-- -loss-  date_in date_out pid N  rate5  rate6  rate7  rate8 ow1 part1 ow2 part2 ow3 part3 ow4 part4 ow5 part5 ow6 part6 ow7 part7 ow8 part8
#
#dc converter data  [  0]                             id   ------------long_id_------------    st ty md nb fg  --no---           reg   ar zone  date_in date_out
#-idc-- -vdc-- -pac-- -qac-- p_schd i_schd v_schd i_marg -rcomp vmin_p vmin_c vac_bs vdc_bs
#-alpha al_min al_max -gamma ga_min ga_max vdiode -xcomm r_tran x_tran
#-tbase tapfac tapfdc tap_ac tap_dc -tmin- -tmax- -tstep -vtmax -vtmin -loss- i_rate x_smoot pid N
#ow1 part1 ow2 part2 ow3 part3 ow4 part4 ow5 part5 ow6 part6 ow7 part7 ow8 part8
#
#vs converter data  [  0]                                        id   ------------long_id_------------ st reg           ar zn dmd amd  dcset acset
# --aloss-- --bloss-- -minloss- ---smax-- ---imax-- ---qmax-- ---qmin-- ---pwf---  date_in   date_out
# tp dcs  ---qmx--- ---qmn--- -psetlim- ---pdc--- ---idc--- ---pac--- ---qac--- pid stn
#ow1 part1 ow2 part2 ow3 part3 ow4 part4 ow5 part5 ow6 part6 ow7 part7 ow8 part8 sdmon
#
#z table data  [ 0]  -tap2 fact2 -tap3 fact3 -tap4 fact4 -tap5 fact5 -tap6 fact6 -tap7 fact7 -tap8 fact8 -tap9 fact9 tap10 fac10 tap11 fac11
#
#gcd data  [   0]                     
#
#sssc data  [   0]                      
#
#transaction data  [    0]             st    sch_mw   sch_mvar  flag stn pid         transaction name
#
#owner data  [    0]   owner name           s name       net_mw   net_mvar     sch_mw   sch_mvar  ar
#
#motor data  [    0]          ID   ------------long_id_------------  S -ar zone own flag  --type-- 
#mbase- -pelec- -qelec- --pf--- --ls--- --tp0-- --lp--- -tpp0-- --lpp-- --ra--- ---h--- --rt--- --lt--- --bcap-
#zppr-- -zppx-- -alt0-- -alt1-- -blt-- -alt2-- -blt2--  date_in date_out pid N
#
#line   data  [    0]                                ck  se  --long_id_--    st  pole name  length w1  ---cond name---   w2  ---cond name---
#w3 ---cond name--- w4 ---cond name--- w5 ---cond name--- area zone nc rating  date_in date_out pid N
#ow1 part1 ow2 part2 ow3 part3 ow4 part4 ow5 part5 ow6 part6 ow7 part7 ow8 part8
#--r--- --x--- --char-- --r0-- --x0--- -char0-- ampc1 ampc2 ampc3 ampc4 ampc5 -loss
#
#qtable data     [   0]   id     p[0]   qmx[0]  qmn[0]  ....  
#
#ba data  [  0]                           swing  desired    tol      pnet     qnet
#
#injection group data  [  0]  "datamaintainer" 
#
#injection group element data  [  0]  prfcalcopt prf value
#
#voltcntgrp data  [  0]  st 
#
#voltcntgrpelem data  [  0] 
#
#interface element  [  0]  pf 
